Version 4
SHEET 1 1784 680
WIRE 1728 -272 1504 -272
WIRE 1504 -224 1504 -272
WIRE 1728 -160 1728 -272
WIRE 32 16 -80 16
WIRE 288 16 32 16
WIRE 432 16 384 16
WIRE 576 16 432 16
WIRE 864 16 672 16
WIRE 1008 16 864 16
WIRE 1328 16 1104 16
WIRE 1456 16 1328 16
WIRE 1728 16 1728 -80
WIRE 1728 16 1552 16
WIRE -80 48 -80 16
WIRE 32 48 32 16
WIRE -80 160 -80 128
WIRE 432 160 432 16
WIRE 576 160 432 160
WIRE 784 160 672 160
WIRE 864 160 864 16
WIRE 1008 160 864 160
WIRE 1248 160 1104 160
WIRE 1328 176 1328 16
WIRE 1456 176 1328 176
WIRE 1680 176 1552 176
WIRE -80 272 -80 240
WIRE 32 272 32 112
FLAG -80 272 0
FLAG 32 272 0
FLAG 576 48 0
FLAG 672 48 0
FLAG 576 192 0
FLAG 672 192 0
FLAG 288 48 0
FLAG 384 48 0
FLAG 784 240 0
FLAG 1008 192 0
FLAG 1104 192 0
FLAG 1248 240 0
FLAG 1456 48 0
FLAG 1552 48 0
FLAG 1456 208 0
FLAG 1552 208 0
FLAG 1680 256 0
FLAG 1504 -144 0
FLAG 1008 48 0
FLAG 1104 48 0
SYMBOL voltage -80 144 R0
WINDOW 123 0 0 Left 0
WINDOW 39 0 0 Left 0
SYMATTR InstName V1
SYMATTR Value PULSE(0 1.5 0 2e-9 1.5e-9 0.875e-8 2e-8)
SYMBOL res -96 32 R0
SYMATTR InstName R1
SYMATTR Value 31
SYMBOL cap 16 48 R0
SYMATTR InstName C1
SYMATTR Value 20e-12
SYMBOL tline 336 32 R0
SYMATTR InstName T1
SYMATTR Value Td=0.7n Z0=57
SYMBOL tline 624 32 R0
SYMATTR InstName T3
SYMATTR Value Td=0.283n Z0=48
SYMBOL tline 624 176 R0
SYMATTR InstName T4
SYMATTR Value Td=0.1n Z0=48
SYMBOL res 768 144 R0
SYMATTR InstName R8
SYMATTR Value 1e6
SYMBOL tline 1056 176 R0
SYMATTR InstName T2
SYMATTR Value Td=0.1n Z0=50
SYMBOL res 1232 144 R0
SYMATTR InstName R2
SYMATTR Value 1e6
SYMBOL tline 1056 32 R0
SYMATTR InstName T5
SYMATTR Value Td=0.2n Z0=50
SYMBOL tline 1504 32 R0
SYMATTR InstName T6
SYMATTR Value Td=0.2n Z0=50
SYMBOL tline 1504 192 R0
SYMATTR InstName T7
SYMATTR Value Td=0.2n Z0=50
SYMBOL res 1664 160 R0
SYMATTR InstName R3
SYMATTR Value 1e6
SYMBOL voltage 1504 -240 R0
WINDOW 123 0 0 Left 0
WINDOW 39 0 0 Left 0
SYMATTR InstName V2
SYMATTR Value 0.75
SYMBOL res 1712 -176 R0
SYMATTR InstName R4
SYMATTR Value 50
TEXT -112 296 Left 2 !.tran 4e-8
